%nproc=4
%mem=1175MB
# opt freq b3lyp/6-31g*

B-1

0 1
C 0   -7.079030    3.233920    1.022120
C 0   -5.953610    2.407910    0.395297
C 0   -5.817970    1.117180    0.644909
C 0   -4.783130    0.410824    0.201043
C 0   -4.702700   -0.941730    0.282881
C 0   -3.790800   -1.754910   -0.208172
C 0   -3.856470   -3.095510    0.052635
C 0   -2.985180   -4.197000   -0.518241
C 0   -5.236420    3.247140   -0.679948
C 0   -2.641070   -1.168550   -0.990154
H 0   -6.961630    4.148660    1.563990
H 0   -7.889150    3.332430    0.205888
H 0   -7.624580    2.622210    1.875680
H 0   -6.531890    0.567783    1.265300
H 0   -4.021620    0.940585   -0.364643
H 0   -5.492900   -1.474040    0.896350
H 0   -4.673490   -3.543430    0.600443
H 0   -2.100470   -3.736660   -1.056050
H 0   -2.544350   -4.884570    0.215917
H 0   -3.599690   -4.925860   -1.122680
H 0   -4.759670    2.641630   -1.417000
H 0   -6.009400    3.743090   -1.259270
H 0   -4.665180    4.139150   -0.169055
H 0   -1.670110   -1.165380   -0.382101
H 0   -2.366920   -1.900710   -1.783720
H 0   -2.959080   -0.220377   -1.480190

