%nproc=4
%mem=1175MB
# opt freq b3lyp/6-31g*

B-1

1 1
C 0   -5.189480  -12.659700    1.770120
C 0   -4.465850  -13.364200    2.911950
C 0   -2.987130  -13.399300    2.540970
C 0   -2.449090  -12.063200    2.073430
C 0   -3.223490  -11.004800    1.717130
C 0   -4.755980  -11.175600    1.626110
C 0   -2.594360   -9.825200    1.489540
C 0   -3.087080   -8.608840    1.188270
C 0   -2.372980   -7.474110    0.989408
C 0   -3.059410   -6.335430    0.734668
C 0   -2.567140   -5.096750    0.540272
C 0   -3.351890   -4.027380    0.302157
C 0   -2.930210   -2.755020    0.114248
C 0   -3.870290   -1.803780   -0.089794
C 0   -3.684350   -0.482021   -0.267035
C 0   -4.702270    0.381259   -0.455018
C 0   -4.517530    1.705680   -0.612322
C 0   -5.458650    2.659640   -0.797913
C 0   -5.042240    3.943460   -0.899792
C 0   -5.831310    5.023540   -1.063380
C 0   -5.345920    6.277720   -1.140140
C 0   -6.038260    7.430950   -1.292920
C 0   -5.335750    8.589970   -1.307910
C 0   -5.840890    9.833860   -1.411060
C 0   -5.225220   11.042100   -1.422470
C 0   -3.691410   11.208900   -1.346620
C 0   -5.311740  -10.780400    0.233087
C 0   -5.462590  -10.372400    2.742690
C 0   -0.927964  -12.079500    2.081450
C 0   -3.252150   12.685000   -1.545260
C 0   -4.110070   13.655400   -0.741494
C 0   -5.523780   13.565100   -1.306100
C 0   -6.019770   12.143600   -1.469660
C 0   -2.959910   10.466500   -2.495310
C 0   -3.158460   10.744400    0.028667
C 0   -7.527260   12.135200   -1.673560
C 0   -7.550400    7.457770   -1.442230
C 0   -6.941690    2.344610   -0.886187
C 0   -1.443430   -2.447030    0.146846
C 0   -0.855262   -7.510280    1.059140
H 0   -4.964130  -13.223100    0.832711
H 0   -6.291890  -12.741500    1.918950
H 0   -4.853130  -14.401600    3.051640
H 0   -4.621020  -12.827600    3.875360
H 0   -2.810150  -14.146500    1.731210
H 0   -2.420120  -13.737400    3.441530
H 0   -1.502860   -9.820050    1.596460
H 0   -4.174970   -8.511760    1.113640
H 0   -4.161750   -6.408970    0.688259
H 0   -1.482860   -4.939110    0.587049
H 0   -4.439270   -4.222450    0.269852
H 0   -4.926100   -2.132090   -0.106005
H 0   -2.667490   -0.063639   -0.253327
H 0   -5.719200   -0.036943   -0.468291
H 0   -3.463340    2.037060   -0.572193
H 0   -3.957010    4.142340   -0.835046
H 0   -6.914760    4.864820   -1.124030
H 0   -4.246240    6.355650   -1.054300
H 0   -4.249860    8.495500   -1.205460
H 0   -6.936710    9.838440   -1.455990
H 0   -4.751980  -11.295800   -0.580569
H 0   -6.384700  -11.062500    0.133661
H 0   -5.290550   -9.699620   -0.002602
H 0   -5.343530   -9.273970    2.651120
H 0   -6.560800  -10.554800    2.743040
H 0   -5.076000  -10.640600    3.750450
H 0   -0.531690  -13.117600    2.015080
H 0   -0.472161  -11.572100    1.203290
H 0   -0.539424  -11.637100    3.026960
H 0   -2.178690   12.822500   -1.275060
H 0   -3.336850   12.974300   -2.620470
H 0   -3.724780   14.699100   -0.831589
H 0   -4.097850   13.397400    0.341811
H 0   -5.574340   14.066500   -2.301850
H 0   -6.200950   14.121100   -0.613914
H 0   -1.878020   10.730400   -2.519400
H 0   -2.970330    9.361740   -2.435590
H 0   -3.393780   10.737000   -3.485090
H 0   -3.285040    9.659290    0.217380
H 0   -2.067120   10.939800    0.129690
H 0   -3.672940   11.264300    0.866483
H 0   -7.890160   13.111000   -2.067430
H 0   -7.869420   11.404400   -2.438570
H 0   -8.049350   11.954100   -0.706456
H 0   -7.848010    8.023760   -2.354000
H 0   -8.039770    6.472610   -1.571720
H 0   -8.019210    7.925710   -0.546501
H 0   -7.367530    2.732080   -1.839610
H 0   -7.208010    1.269520   -0.879241
H 0   -7.485660    2.802420   -0.028585
H 0   -1.029300   -2.649170    1.161050
H 0   -0.899495   -3.066650   -0.601934
H 0   -1.160960   -1.404270   -0.097392
H 0   -0.335611   -6.586150    0.738634
H 0   -0.520813   -7.712920    2.102300
H 0   -0.446377   -8.293170    0.380799

