%nproc=4
%mem=1175MB
# opt freq b3lyp/6-31g*

A-3

1 1
C 0   -8.801960   -0.872750    0.058127
C 0   -7.594890   -0.274703    0.110880
C 0   -6.439620   -0.964600    0.057087
C 0   -5.227160   -0.379081    0.109048
C 0  -10.017300   -0.288880    0.100231
S 0  -10.188200    1.170650    0.206997
C 0  -11.647700    1.172090    0.167963
C 0  -12.124900   -0.074754    0.073990
N 0  -11.152300   -0.944579    0.043750
C 0  -12.461400    2.236910    0.216099
C 0  -13.787800    2.031240    0.165127
C 0  -14.277500    0.784205    0.065506
C 0  -13.451300   -0.274379    0.018290
C 0  -11.338800   -2.449970   -0.052304
C 0  -11.298800   -2.906880   -1.514540
C 0   -4.077200   -1.076160    0.045596
C 0   -2.788300   -0.669145    0.086189
S 0   -1.764260   -1.724380   -0.053268
C 0   -0.592888   -0.850158   -0.012457
C 0   -0.941059    0.431088    0.166302
N 0   -2.208190    0.453366    0.231911
C 0    0.692513   -1.217010   -0.121696
C 0    1.638420   -0.265888   -0.052049
C 0    1.296370    1.021090    0.125699
C 0    0.006088    1.380010    0.236656
C 0   -2.896460    1.738250    0.480024
C 0   -3.296390    2.435140   -0.826294
H 0   -8.777040   -1.971120   -0.035160
H 0   -7.526890    0.822126    0.202061
H 0   -6.493290   -2.063790   -0.033631
H 0   -5.221440    0.713120    0.193670
H 0  -12.070900    3.266040    0.294884
H 0  -14.478100    2.890770    0.201996
H 0  -15.368700    0.628784    0.019568
H 0  -13.881500   -1.283670   -0.070502
H 0  -10.572600   -2.986760    0.550878
H 0  -12.304000   -2.756040    0.411028
H 0  -10.324300   -2.652930   -1.990080
H 0  -11.439900   -4.009230   -1.594520
H 0  -12.105000   -2.415180   -2.105700
H 0   -4.255720   -2.165980   -0.068779
H 0    0.988114   -2.270510   -0.265122
H 0    2.702310   -0.543340   -0.141052
H 0    2.084430    1.791480    0.178011
H 0   -0.234295    2.445370    0.371484
H 0   -3.745660    1.610860    1.183020
H 0   -2.259480    2.434480    1.071350
H 0   -2.395590    2.690040   -1.430340
H 0   -3.945850    1.790370   -1.459370
H 0   -3.848810    3.381170   -0.623187

