%nprocshared=32
%mem=128GB
# td=(nstates=150) CAM-b3lyp/def2TZVP scrf(smd, solvent=ethanol)

A-2

1 1
 C                  1.18593200    1.12418800    0.25906500
 C                 -0.06404200    0.51889400    0.18473600
 C                 -1.25506200    1.23243300    0.20607100
 C                 -2.57690800    0.77597100    0.13436800
 C                  2.39263400    0.43147100    0.17128300
 S                 -3.82766700    1.97000900   -0.18707500
 C                 -5.07787700    0.74479200   -0.13477500
 C                 -4.50919500   -0.50864000    0.11384600
 N                 -3.11837200   -0.45817900    0.27972100
 S                  2.50519800   -1.30012100   -0.12510600
 C                  4.26031500   -1.22576200   -0.10255300
 C                  4.68878400    0.08701000    0.11941600
 N                  3.62751200    0.98165500    0.28741100
 C                  5.15931700   -2.26746100   -0.27950300
 C                  6.51791300   -1.97359600   -0.23725700
 C                  6.95394000   -0.66384100   -0.02533300
 C                  6.05156600    0.37821300    0.15345800
 C                 -6.44680400    0.90417600   -0.30421500
 C                 -7.25122900   -0.22610600   -0.22640800
 C                 -6.68974700   -1.48248500    0.01486800
 C                 -5.32005100   -1.64050400    0.18625000
 C                  3.84714400    2.41566900    0.55458000
 C                  3.91176200    3.24963700   -0.71763200
 C                 -2.36936900   -1.66030800    0.69242300
 C                 -1.91885400   -2.52299100   -0.47911000
 H                  1.22885200    2.19919600    0.37656200
 H                 -0.09663600   -0.55694500    0.07223500
 H                 -1.16519300    2.31437000    0.22419900
 H                  4.81396100   -3.27995100   -0.44835200
 H                  7.24041500   -2.76871800   -0.37396000
 H                  8.01553800   -0.44970700   -0.00206800
 H                  6.40682200    1.38808500    0.30606500
 H                 -6.87573600    1.88073800   -0.49122500
 H                 -8.32188000   -0.12915900   -0.35743100
 H                 -7.33032600   -2.35428300    0.06736000
 H                 -4.90197300   -2.62168900    0.36373600
 H                  3.04858500    2.75429600    1.21216800
 H                  4.77271000    2.49484900    1.12204400
 H                  4.08253800    4.29549600   -0.45251500
 H                  4.72891100    2.92446800   -1.36454400
 H                  2.97819900    3.18721500   -1.27998200
 H                 -1.53166700   -1.32931700    1.30260100
 H                 -3.02766600   -2.22470200    1.35176800
 H                 -1.27610000   -1.97255600   -1.16834900
 H                 -1.35914900   -3.37917100   -0.09601700
 H                 -2.77567200   -2.89960400   -1.04080100

